  0
SECTION
  2
ENTITIES
999
DXF created from EnergyPlus
999
Program Version,EnergyPlus, Version 8.8, YMD=2015.03.22 17:37
999
Polygon Action,TRIANGULATE3DFACE
999
Color Scheme,DXF-SCHEME
999
Text - True North
  0
TEXT
  8
1
  6
Continuous
 62
  3
 10
      -16.00000
 20
       -2.00000
 30
        0.10000
 40
 .25
  1
True North
 41
 0.0
  7
MONOTXT
210
0.0
220
0.0
230
1.0
999
Text - Building Title
  0
TEXT
  8
1
  6
Continuous
 62
  3
 10
      -19.00000
 20
       -6.00000
 30
        0.10000
 40
 .4
  1
Building - Building
 41
 0.0
  7
MONOTXT
210
0.0
220
0.0
230
1.0
999
North Arrow Stem
  0
3DFACE
  8
1
 62
  3
 10
      -15.00000
 20
       -2.00000
 30
        0.10000
 11
      -15.00000
 21
       -2.00000
 31
        0.00000
 12
      -15.00000
 22
       -5.00000
 32
        0.00000
 13
      -15.00000
 23
       -5.00000
 33
        0.10000
999
North Arrow Head 1
  0
3DFACE
  8
1
 62
  3
 10
      -15.00000
 20
       -2.00000
 30
        0.10000
 11
      -15.00000
 21
       -2.00000
 31
        0.00000
 12
      -15.50000
 22
       -2.86603
 32
        0.00000
 13
      -15.50000
 23
       -2.86603
 33
        0.10000
999
North Arrow Head 2
  0
3DFACE
  8
1
 62
  3
 10
      -15.00000
 20
       -2.00000
 30
        0.10000
 11
      -15.00000
 21
       -2.00000
 31
        0.00000
 12
      -14.50000
 22
       -2.86603
 32
        0.00000
 13
      -14.50000
 23
       -2.86603
 33
        0.10000
999
North Arrow Side 1
  0
3DFACE
  8
1
 62
  3
 10
      -15.50000
 20
       -0.50000
 30
        0.10000
 11
      -15.50000
 21
       -0.50000
 31
        0.00000
 12
      -15.50000
 22
       -1.50000
 32
        0.00000
 13
      -15.50000
 23
       -1.50000
 33
        0.10000
999
North Arrow Side 2
  0
3DFACE
  8
1
 62
  3
 10
      -15.50000
 20
       -0.50000
 30
        0.10000
 11
      -15.50000
 21
       -0.50000
 31
        0.00000
 12
      -14.50000
 22
       -1.50000
 32
        0.00000
 13
      -14.50000
 23
       -1.50000
 33
        0.10000
999
North Arrow Side 3
  0
3DFACE
  8
1
 62
  3
 10
      -14.50000
 20
       -0.50000
 30
        0.10000
 11
      -14.50000
 21
       -0.50000
 31
        0.00000
 12
      -14.50000
 22
       -1.50000
 32
        0.00000
 13
      -14.50000
 23
       -1.50000
 33
        0.10000
999
Zone Names
999
Zone=1:ZONE1
999
ZONE1:PARTITION1
  0
3DFACE
  8
ZONE1
 62
  3
 10
       -5.00000
 20
       -5.00000
 30
        3.00000
 11
       -5.00000
 21
       -0.00000
 31
        3.00000
 12
       -5.00000
 22
       -0.00000
 32
        0.00000
 13
       -5.00000
 23
       -5.00000
 33
        0.00000
999
ZONE1:PARTITION2
  0
3DFACE
  8
ZONE1
 62
  3
 10
        5.00000
 20
       -5.00000
 30
        3.00000
 11
       -5.00000
 21
       -5.00000
 31
        3.00000
 12
       -5.00000
 22
       -5.00000
 32
        0.00000
 13
        5.00000
 23
       -5.00000
 33
        0.00000
999
ZONE1:PARTITION3
  0
3DFACE
  8
ZONE1
 62
  3
 10
        5.00000
 20
        0.00000
 30
        3.00000
 11
        5.00000
 21
       -5.00000
 31
        3.00000
 12
        5.00000
 22
       -5.00000
 32
        0.00000
 13
        5.00000
 23
        0.00000
 33
        0.00000
999
ZONE1:EXTWALL
  0
3DFACE
  8
ZONE1
 62
  3
 10
       -5.00000
 20
       -0.00000
 30
        3.00000
 11
        5.00000
 21
        0.00000
 31
        3.00000
 12
        5.00000
 22
        0.00000
 32
        0.00000
 13
       -5.00000
 23
       -0.00000
 33
        0.00000
999
ZONE1:EXTWIN
  0
3DFACE
  8
ZONE1
 62
  1
 10
       -1.99900
 20
       -0.00000
 30
        2.09970
 11
        1.99900
 21
        0.00000
 31
        2.09970
 12
        1.99900
 22
        0.00000
 32
        0.90030
 13
       -1.99900
 23
       -0.00000
 33
        0.90030
999
ZONE1:FLOOR
  0
3DFACE
  8
ZONE1
 62
 30
 10
        5.00000
 20
       -5.00000
 30
        0.00000
 11
       -5.00000
 21
       -5.00000
 31
        0.00000
 12
       -5.00000
 22
       -0.00000
 32
        0.00000
 13
        5.00000
 23
        0.00000
 33
        0.00000
999
ZONE1:CEILING
  0
3DFACE
  8
ZONE1
 62
250
 10
       -5.00000
 20
       -5.00000
 30
        3.00000
 11
        5.00000
 21
       -5.00000
 31
        3.00000
 12
        5.00000
 22
        0.00000
 32
        3.00000
 13
       -5.00000
 23
       -0.00000
 33
        3.00000
999
ZONE1:OVERHANG
  0
3DFACE
  8
ZONE1
 62
  5
 10
        1.99900
 20
        0.00000
 30
        2.09970
 11
       -1.99900
 21
       -0.00000
 31
        2.09970
 12
       -1.99900
 22
       19.19040
 32
        2.09970
 13
        1.99900
 23
       19.19040
 33
        2.09970
999
ZONE1:Mir-OVERHANG
  0
3DFACE
  8
ZONE1
 62
  5
 10
        1.99900
 20
       19.19040
 30
        2.09970
 11
       -1.99900
 21
       19.19040
 31
        2.09970
 12
       -1.99900
 22
       -0.00000
 32
        2.09970
 13
        1.99900
 23
        0.00000
 33
        2.09970
999
ZONE1:FINR
  0
3DFACE
  8
ZONE1
 62
  5
 10
       -1.99900
 20
        0.79960
 30
        2.09970
 11
       -1.99900
 21
       -0.00000
 31
        2.09970
 12
       -1.99900
 22
       -0.00000
 32
        0.90030
 13
       -1.99900
 23
        0.79960
 33
        0.90030
999
ZONE1:Mir-FINR
  0
3DFACE
  8
ZONE1
 62
  5
 10
       -1.99900
 20
        0.79960
 30
        0.90030
 11
       -1.99900
 21
       -0.00000
 31
        0.90030
 12
       -1.99900
 22
       -0.00000
 32
        2.09970
 13
       -1.99900
 23
        0.79960
 33
        2.09970
999
ZONE1:FINL
  0
3DFACE
  8
ZONE1
 62
  5
 10
        1.99900
 20
        0.00000
 30
        2.09970
 11
        1.99900
 21
        0.79960
 31
        2.09970
 12
        1.99900
 22
        0.79960
 32
        0.90030
 13
        1.99900
 23
        0.00000
 33
        0.90030
999
ZONE1:Mir-FINL
  0
3DFACE
  8
ZONE1
 62
  5
 10
        1.99900
 20
        0.00000
 30
        0.90030
 11
        1.99900
 21
        0.79960
 31
        0.90030
 12
        1.99900
 22
        0.79960
 32
        2.09970
 13
        1.99900
 23
        0.00000
 33
        2.09970
  0
ENDSEC
  0
EOF
