Program Version,EnergyPlus, Version 8.8, YMD=2015.03.18 22:55
