Program Version,EnergyPlus, Version 8.8, YMD=2015.03.18 22:55,IDD_Version 8.8.0.009
   ** Severe  ** Output:PreprocessorMessage="EPMacro" has the following Severe conditions:
   **   ~~~   ** at approximately input line number=14: column=11
   **   ~~~   ** cannot find/read include file
   **   ~~~   ** symbol=OCC[].idf
   **   ~~~   ** refer to <file>.epmdet for details.
   ** Severe  ** Output:PreprocessorMessage="EPMacro" has the following Severe conditions:
   **   ~~~   ** at approximately input line number=-1: column=1
   **   ~~~   ** bad character in number field
   **   ~~~   ** symbol=##if #[WinGR[]
   **   ~~~   ** refer to <file>.epmdet for details.
   ************* Beginning Zone Sizing Calculations
   ** Warning ** BuildingSurface:Detailed="CEILING", Sun Exposure="SUNEXPOSED".
   **   ~~~   ** ..This surface is not exposed to External Environment.  Sun exposure has no effect.
   ** Warning ** BuildingSurface:Detailed="PARTITION1", Sun Exposure="SUNEXPOSED".
   **   ~~~   ** ..This surface is not exposed to External Environment.  Sun exposure has no effect.
   ** Warning ** BuildingSurface:Detailed="PARTITION2", Sun Exposure="SUNEXPOSED".
   **   ~~~   ** ..This surface is not exposed to External Environment.  Sun exposure has no effect.
   ** Warning ** BuildingSurface:Detailed="PARTITION3", Sun Exposure="SUNEXPOSED".
   **   ~~~   ** ..This surface is not exposed to External Environment.  Sun exposure has no effect.
   ** Severe  ** BuildingSurface:Detailed="EXTWALL", invalid Construction Name="STEELFRAME".
   **  Fatal  ** GetSurfaceData: Errors discovered, program terminates.
   ...Summary of Errors that led to program termination:
   ..... Reference severe error count=3
   ..... Last severe error=BuildingSurface:Detailed="EXTWALL", invalid Construction Name="STEELFRAME".
   ************* Warning:  Node connection errors not checked - most system input has not been read (see previous warning).
   ************* Fatal error -- final processing.  Program exited before simulations began.  See previous error messages.
   ************* EnergyPlus Warmup Error Summary. During Warmup: 0 Warning; 0 Severe Errors.
   ************* EnergyPlus Sizing Error Summary. During Sizing: 4 Warning; 1 Severe Errors.
   ************* EnergyPlus Terminated--Fatal Error Detected. 4 Warning; 3 Severe Errors; Elapsed Time=00hr 00min  0.54sec
